# ============================================
# NEUROFAST v8 — ENVIRONMENT VARIABLES
# ============================================
# IMPORTANT: NEVER upload this file to GitHub!
# Add .env.local to your .gitignore file
# ============================================

# CLERK — Authentication
NEXT_PUBLIC_CLERK_PUBLISHABLE_KEY=pk_test_cHJlY2lzZS1sb25naG9ybi01NS5jbGVyay5hY2NvdW50cy5kZXk
CLERK_SECRET_KEY=sk_test_DCYpVTJD0BE9LucakxAjtexra1KEN63giAPD2rRZ30
NEXT_PUBLIC_CLERK_SIGN_IN_URL=/sign-in
NEXT_PUBLIC_CLERK_SIGN_UP_URL=/sign-up
NEXT_PUBLIC_CLERK_AFTER_SIGN_IN_URL=/dashboard
NEXT_PUBLIC_CLERK_AFTER_SIGN_UP_URL=/dashboard

# SUPABASE — Database & Storage
NEXT_PUBLIC_SUPABASE_URL=https://eyetogbeleqcxgrkdljx.supabase.co
NEXT_PUBLIC_SUPABASE_ANON_KEY=eyJhbGciOiJIUzI1NiIsInR5cCI6IkpXVCJ9.eyJpc3MiOiJzdXBhYmFzZSIsInJlZiI6ImV5ZXRvZ2JlbGVxY3hncmtkbGp4Iiwicm9sZSI6ImFub24iLCJpYXQiOjE3NzcyNzc0NjIsImV4cCI6MjA5Mjg1MzQ2Mn0.33KAaxCv3DGcxwUivzauAShM5kinqhNHV9CwG7ALKkA
SUPABASE_SERVICE_ROLE_KEY=eyJhbGciOiJIUzI1NiIsInR5cCI6IkpXVCJ9.eyJpc3MiOiJzdXBhYmFzZSIsInJlZiI6ImV5ZXRvZ2JlbGVxY3hncmtkbGp4Iiwicm9sZSI6InNlcnZpY2Vfcm9sZSIsImlhdCI6MTc3NzI3NzQ2MiwiZXhwIjoyMDkyODUzNDYyfQ._S1FYZ_Mg_1SCVbQzHQWhejue9EZx8dIUEXaAiIP33s

# DATABASE — Postgres via Supabase
DATABASE_URL=postgresql://postgres:Neurofast@123@db.eyetogbeleqcxgrkdljx.supabase.co:5432/postgres

# TOGETHER AI — Model Training & Inference
TOGETHER_API_KEY=tgp_v1_6o5ep1pl5EjDXP9GhzXASmZ-TxWdJ6K3lWvhB_Gdv3c

# UPSTASH REDIS — Caching
UPSTASH_REDIS_REST_URL=https://loved-rat-75663.upstash.io
UPSTASH_REDIS_REST_TOKEN=gQAAAAAAASePAAIgcDIyYWIxY2FjNjU5ZmE0ZjcwOWE4OTdhMzlkNTViMzJiYg

# ANTHROPIC — Admin AI Brain (add later)
ANTHROPIC_API_KEY=skip

# RAZORPAY — Payments (add later)
NEXT_PUBLIC_RAZORPAY_KEY_ID=skip
RAZORPAY_KEY_SECRET=skip
